/*--------------------------------*- C++ -*----------------------------------*\
| =========                 |                                                 |
| \\      /  F ield         | foam-extend: Open Source CFD                    |
|  \\    /   O peration     | Version:     5.0                                |
|   \\  /    A nd           | Web:         http://www.foam-extend.org         |
|    \\/     M anipulation  |                                                 |
\*---------------------------------------------------------------------------*/
FoamFile
{
    version     2.0;
    format      ascii;
    class       polyBoundaryMesh;
    location    "constant/polyMesh";
    object      boundary;
}
// * * * * * * * * * * * * * * * * * * * * * * * * * * * * * * * * * * * * * //

3
(
    movingWall
    {
        type            wall;
        nFaces          100;
        startFace       19800;
        closedSolidBodyMotion false;
    }
    fixedWalls
    {
        type            wall;
        nFaces          300;
        startFace       19900;
        closedSolidBodyMotion false;
    }
    frontAndBack
    {
        type            empty;
        nFaces          20000;
        startFace       20200;
    }
)


// ************************************************************************* //
